LTspice 24.1.5 for Windows
Circuit: C:\Users\nagam\OneDrive\Documents(OneDrive)\LTspice\Learning\Active Filter - 1.net
Start Time: Mon Jun  2 20:56:15 2025
solver = Normal
Maximum thread count: 12
tnom = 27
temp = 27
method = trap
Direct Newton iteration for .op point succeeded.
Total elapsed time: 0.128 seconds.

Files loaded:
C:\Users\nagam\OneDrive\Documents(OneDrive)\LTspice\Learning\Active Filter - 1.net
C:\Users\nagam\AppData\Local\LTspice\lib\sub\UniversalOpAmp1.lib

