LTspice 24.1.5 for Windows
Circuit: C:\Users\nagam\OneDrive\Documents(OneDrive)\LTspice\Learning\Draft1.net
Start Time: Fri Jun 27 18:39:00 2025
solver = Normal
Maximum thread count: 12
tnom = 27
temp = 27
method = trap
Direct Newton iteration for .op point succeeded.
Total elapsed time: 0.066 seconds.

Files loaded:
C:\Users\nagam\OneDrive\Documents(OneDrive)\LTspice\Learning\Draft1.net
C:\Users\nagam\AppData\Local\LTspice\lib\sub\UniversalOpAmp1.lib

